Version 4.1
SHEET 1 1720 936
WIRE 288 448 160 448
WIRE 384 448 288 448
WIRE 512 448 384 448
WIRE 560 448 512 448
WIRE 672 448 640 448
WIRE 704 448 672 448
WIRE 800 448 768 448
WIRE 848 448 800 448
WIRE 960 448 928 448
WIRE 1072 448 960 448
WIRE 1168 448 1072 448
WIRE 1264 448 1168 448
WIRE 160 464 160 448
WIRE 1168 464 1168 448
WIRE 1264 464 1264 448
WIRE 288 480 288 448
WIRE 800 480 800 448
WIRE 960 496 960 448
WIRE 1072 512 1072 448
WIRE 160 560 160 544
WIRE 288 560 288 544
WIRE 512 560 512 448
WIRE 672 560 672 448
WIRE 1168 560 1168 528
WIRE 1264 560 1264 544
WIRE 800 576 800 544
WIRE 384 656 384 448
WIRE 432 656 384 656
WIRE 960 656 960 576
WIRE 960 656 752 656
WIRE 1072 656 1072 576
WIRE 1072 656 960 656
WIRE 960 672 960 656
WIRE 592 768 592 752
WIRE 960 768 960 752
FLAG 160 560 0
FLAG 592 768 0
FLAG 1264 560 0
FLAG 1168 560 0
FLAG 960 768 0
FLAG 800 576 0
FLAG 1264 448 VOUT
FLAG 160 448 IN
FLAG 288 560 0
SYMBOL schottky 784 480 R0
SYMATTR InstName D1
SYMATTR Value MBRS140
SYMBOL RES 944 656 R0
SYMATTR InstName R1
SYMATTR Value 10K
SYMATTR SpiceLine tol=5
SYMBOL RES 944 480 R0
SYMATTR InstName R2
SYMATTR Value 90K
SYMATTR SpiceLine tol=5
SYMBOL VOLTAGE 160 448 R0
WINDOW 123 0 0 Left 0
WINDOW 39 24 124 Left 2
SYMATTR SpiceLine Rser=100m
SYMATTR InstName V1
SYMATTR Value 9
SYMBOL polcap 704 432 M90
WINDOW 0 0 32 VBottom 2
WINDOW 3 32 32 VTop 2
SYMATTR InstName C1
SYMATTR Value 1µ
SYMATTR SpiceLine V=16 Irms=5.65 Rser=0.00828976 Lser=0 mfg="KEMET" pn="C0805C105K4PAC" type="X5R"
SYMBOL POWERPRODUCTS\\LT1931 592 656 R0
WINDOW 0 0 -120 Center 2
WINDOW 3 40 114 Left 2
SYMATTR InstName U1
SYMBOL cap 1056 512 R0
SYMATTR InstName C2
SYMATTR Value 220p
SYMATTR SpiceLine V=16 Irms=0 Rser=0.0785 Lser=206p mfg="Würth Elektronik" pn="885012005033 WCAP-CSGP 0402" type="NP0"
SYMBOL polcap 1152 528 M180
WINDOW 0 24 57 Left 2
WINDOW 3 24 8 Left 2
SYMATTR InstName C4
SYMATTR Value 22µ
SYMATTR SpiceLine V=25 Irms=0 Rser=0.003 Lser=0 mfg="TDK" pn="C575OX5RIE226M" type="X5R"
SYMBOL res 1248 448 R0
SYMATTR InstName Rload
SYMATTR Value 52
SYMBOL ind 544 464 R270
WINDOW 0 32 56 VTop 2
WINDOW 3 5 56 VBottom 2
SYMATTR InstName L3
SYMATTR Value 15µ
SYMATTR SpiceLine Ipk=1.1 Rser=0.08 Rpar=0 Cpar=0 mfg="Coiltronics" pn="CTX15-1"
SYMBOL ind 832 464 R270
WINDOW 0 32 56 VTop 2
WINDOW 3 5 56 VBottom 2
SYMATTR InstName L4
SYMATTR Value 15µ
SYMATTR SpiceLine Ipk=1.1 Rser=0.08 Rpar=0 Cpar=0 mfg="Coiltronics" pn="CTX15-1"
SYMBOL cap 272 480 R0
SYMATTR InstName C3
SYMATTR Value 4.7µ
SYMATTR SpiceLine V=25 Irms=0 Rser=0.0054 Lser=508p mfg="Würth Elektronik" pn="885012108020 WCAP-CSGP 1206" type="X5R"
TEXT 1096 696 Left 2 !.tran 2ms startup
TEXT 1096 728 Left 2 !.meas TRAN Vout_pp PP V(Vout) FROM 900u TO 1.5m
