Version 4.1
SHEET 1 1452 680
WIRE -16 -80 -144 -80
WIRE 64 -80 -16 -80
WIRE 256 -80 64 -80
WIRE -16 -64 -16 -80
WIRE -144 -48 -144 -80
WIRE 256 -48 256 -80
WIRE 64 0 64 -80
WIRE 112 0 64 0
WIRE 416 0 400 0
WIRE 496 0 480 0
WIRE -16 16 -16 0
WIRE -144 48 -144 32
WIRE 112 96 64 96
WIRE 624 96 400 96
WIRE 432 192 400 192
WIRE 432 208 432 192
WIRE 32 288 16 288
WIRE 112 288 96 288
WIRE 432 288 432 272
WIRE 432 288 400 288
WIRE 512 288 432 288
WIRE 624 288 624 96
WIRE 624 288 592 288
WIRE 736 288 624 288
WIRE 832 288 736 288
WIRE 928 288 832 288
WIRE 624 304 624 288
WIRE 736 304 736 288
WIRE 832 304 832 288
WIRE 928 304 928 288
WIRE 112 384 32 384
WIRE 624 384 400 384
WIRE 736 384 736 368
WIRE 736 384 624 384
WIRE 32 400 32 384
WIRE 624 400 624 384
WIRE 832 400 832 368
WIRE 928 400 928 384
WIRE 192 448 192 432
WIRE 320 448 320 432
WIRE 32 496 32 480
WIRE 624 496 624 480
FLAG 192 448 0
FLAG 320 448 0
FLAG 32 496 0
FLAG 16 288 0
FLAG -144 48 0
FLAG 496 0 0
FLAG 832 400 0
FLAG 624 496 0
FLAG 928 400 0
FLAG 928 288 Vout
FLAG -144 -80 Vin
FLAG 64 96 0
FLAG -16 16 0
SYMBOL res 16 384 R0
SYMATTR InstName R1
SYMATTR Value 56K
SYMATTR SpiceLine tol=5
SYMBOL cap 96 272 R90
WINDOW 0 0 32 VBottom 2
WINDOW 3 32 32 VTop 2
SYMATTR InstName C1
SYMATTR Value 0.001µ
SYMATTR SpiceLine V=50 Irms=0 Rser=0.1647 Lser=300p mfg="Würth Elektronik" pn="885012207086 WCAP-CSGP 0805" type="X7R"
SYMBOL voltage -144 -64 R0
WINDOW 123 0 0 Left 0
WINDOW 39 24 124 Left 2
SYMATTR SpiceLine Rser=100m
SYMATTR InstName V1
SYMATTR Value 9
SYMBOL cap 416 16 R270
WINDOW 0 32 32 VTop 2
WINDOW 3 0 32 VBottom 2
SYMATTR InstName C2
SYMATTR Value 1µ
SYMATTR SpiceLine V=16 Irms=0 Rser=0.0074 Lser=251p mfg="Würth Elektronik" pn="885012206052 WCAP-CSGP 0603" type="X7R"
SYMBOL cap 416 208 R0
SYMATTR InstName C3
SYMATTR Value 0.1µ
SYMATTR SpiceLine V=25 Irms=0 Rser=0.0173 Lser=350p mfg="Würth Elektronik" pn="885012207072 WCAP-CSGP 0805" type="X7R"
SYMBOL cap 816 304 R0
SYMATTR InstName C4
SYMATTR Value 470µ
SYMATTR SpiceLine V=450 Irms=2.89 Rser=0.076 Lser=9.11n mfg="Würth Elektronik" pn="861011486024 WCAP-AIG8 35x47" type="Al electrolytic"
SYMBOL res 608 288 R0
SYMATTR InstName R2
SYMATTR Value 51K
SYMATTR SpiceLine tol=5
SYMBOL res 608 384 R0
SYMATTR InstName R3
SYMATTR Value 12K
SYMATTR SpiceLine tol=5
SYMBOL cap 720 304 R0
SYMATTR InstName C5
SYMATTR Value 10p
SYMATTR SpiceLine V=50 Irms=0 Rser=0.2478 Lser=575p mfg="Würth Elektronik" pn="885012008037 WCAP-CSGP 1206" type="NP0"
SYMBOL res 912 288 R0
SYMATTR InstName Rload
SYMATTR Value 10
SYMBOL LT8610 256 192 R0
SYMATTR InstName U1
SYMBOL cap -32 -64 R0
SYMATTR InstName C6
SYMATTR Value 10µ
SYMATTR SpiceLine V=16 Irms=0 Rser=0.003 Lser=788p mfg="Würth Elektronik" pn="885012208041 WCAP-CSGP 1206" type="X7R"
SYMBOL ind 496 304 R270
WINDOW 0 32 56 VTop 2
WINDOW 3 5 56 VBottom 2
SYMATTR InstName L1
SYMATTR Value 15µ
SYMATTR SpiceLine Ipk=4 Rser=0.0218 Rpar=12395.5 Cpar=4.153p mfg="Würth Elektronik" pn="7447798151 WE-PDF 1064"
TEXT 848 488 Left 2 !.tran 1m startup
TEXT 848 520 Left 2 !.meas TRAN Vout_pp PP V(Vout) FROM 750u TO 1m
TEXT 848 552 Left 2 !.meas TRAN Vin_pp PP V(Vin) FROM 750u TO 1m
