Version 4.1
SHEET 1 2956 1464
WIRE 2144 912 1824 912
WIRE 2240 912 2144 912
WIRE 2352 912 2304 912
WIRE 2144 928 2144 912
WIRE 1824 992 1824 912
WIRE 2144 1008 2144 992
WIRE 2144 1008 2112 1008
WIRE 2240 1008 2144 1008
WIRE 2352 1008 2352 912
WIRE 2352 1008 2320 1008
WIRE 2464 1008 2352 1008
WIRE 2560 1008 2464 1008
WIRE 2464 1024 2464 1008
WIRE 2352 1040 2352 1008
WIRE 1504 1056 1408 1056
WIRE 1584 1056 1504 1056
WIRE 1664 1056 1584 1056
WIRE 1680 1056 1664 1056
WIRE 2112 1056 2112 1008
WIRE 2112 1056 1968 1056
WIRE 2144 1056 2144 1008
WIRE 1408 1072 1408 1056
WIRE 2560 1072 2560 1008
WIRE 1664 1120 1664 1056
WIRE 1680 1120 1664 1120
WIRE 2112 1120 1968 1120
WIRE 2464 1120 2464 1088
WIRE 2144 1136 2144 1120
WIRE 1408 1168 1408 1152
WIRE 2112 1168 2112 1120
WIRE 2352 1168 2352 1120
WIRE 2352 1168 2112 1168
WIRE 2560 1168 2560 1152
WIRE 1984 1184 1968 1184
WIRE 2080 1184 2064 1184
WIRE 2352 1184 2352 1168
WIRE 2080 1200 2080 1184
WIRE 1824 1264 1824 1248
WIRE 2080 1280 2080 1264
WIRE 2352 1280 2352 1264
FLAG 2080 1280 0
FLAG 1824 1264 0
FLAG 2352 1280 0
FLAG 2144 1136 0
FLAG 2464 1120 0
FLAG 1408 1168 0
FLAG 2560 1168 0
FLAG 2560 1008 Vout
FLAG 1408 1056 Vin
FLAG 1504 1120 0
FLAG 1584 1120 0
SYMBOL cap 2128 928 R0
SYMATTR InstName C2
SYMATTR Value 0.18µ
SYMATTR SpiceLine V=16 Irms=2.71 Rser=0.0390599 Lser=0 mfg="KEMET" pn="C1210F184K4RAC" type="X7R"
SYMBOL ind 2224 1024 R270
WINDOW 0 32 56 VTop 2
WINDOW 3 5 56 VBottom 2
SYMATTR InstName L1
SYMATTR Value 2.2µ
SYMATTR SpiceLine Ipk=3.4 Rser=0.01 Rpar=2019 Cpar=2.03p mfg="Würth Elektronik" pn="744062002 WE-TPC 6823"
SYMBOL RES 2336 1024 R0
SYMATTR InstName R1
SYMATTR Value 30K
SYMATTR SpiceLine tol=5
SYMBOL res 2336 1168 R0
SYMATTR InstName R2
SYMATTR Value 10K
SYMATTR SpiceLine tol=5
SYMBOL schottky 2128 1120 M180
WINDOW 0 24 72 Left 2
WINDOW 3 24 0 Left 2
SYMATTR InstName D1
SYMATTR Value MBRS340
SYMBOL diode 2304 896 R90
WINDOW 0 0 32 VBottom 2
WINDOW 3 32 32 VTop 2
SYMATTR InstName D2
SYMATTR Value BAT54
SYMBOL VOLTAGE 1408 1056 R0
WINDOW 123 0 0 Left 0
WINDOW 39 24 124 Left 2
SYMATTR SpiceLine Rser=100m
SYMATTR InstName V1
SYMATTR Value 9
SYMBOL cap 2064 1200 R0
SYMATTR InstName C3
SYMATTR Value 0.0022µ
SYMATTR SpiceLine V=10 Irms=0 Rser=0.0248 Lser=275p mfg="Würth Elektronik" pn="885012207009 WCAP-CSGP 0805" type="X7R"
SYMBOL cap 2448 1024 R0
SYMATTR InstName C1
SYMATTR Value 470µ
SYMATTR SpiceLine V=10 Irms=2.8 Rser=0.028 Lser=0 mfg="Vishay" pn="597D477M010E" type="Tantalum Conf Coat"
SYMBOL POWERPRODUCTS\\LT1765 1824 1120 R0
SYMATTR InstName U1
SYMBOL res 2080 1168 R90
WINDOW 0 0 56 VBottom 2
WINDOW 3 32 56 VTop 2
SYMATTR InstName R3
SYMATTR Value 1K
SYMATTR SpiceLine tol=5
SYMBOL res 2544 1056 R0
SYMATTR InstName Rload
SYMATTR Value 2.5
SYMATTR SpiceLine tol=5
SYMBOL cap 1488 1056 R0
SYMATTR InstName C4
SYMATTR Value 4.7µ
SYMATTR SpiceLine V=16 Irms=0 Rser=0.0036 Lser=256p mfg="Würth Elektronik" pn="885012107013 WCAP-CSGP 0805" type="X5R"
SYMBOL cap 1568 1056 R0
SYMATTR InstName C5
SYMATTR Value 4.7µ
SYMATTR SpiceLine V=16 Irms=0 Rser=0.0036 Lser=256p mfg="Würth Elektronik" pn="885012107013 WCAP-CSGP 0805" type="X5R"
TEXT 2136 1320 Left 2 !.tran 0 2m 1.4m
TEXT 2136 1352 Left 2 !.meas TRAN Vout_pp PP V(Vout) FROM 1.5m TO 2m
TEXT 2136 1384 Left 2 !.meas TRAN Vin_pp PP V(Vin) FROM 1.5m TO 2m
